minlp-notes/research-20261001/scip-set-selection/logs/root/powerflow0057r.off.s0.log
SCIP version 10.0.3 [precision: 8 byte] [memory: block] [mode: optimized] [LP solver: SoPlex 8.0.3] [GitHash: d409edf9f6]
Copyright (c) 2002-2026 Zuse Institute Berlin (ZIB)

External libraries: 
  Readline 8.3         GNU library for command line editing (gnu.org/s/readline)
  SoPlex 8.0.3         Linear programming solver developed at Zuse Institute Berlin (soplex.zib.de) [GitHash: 13e2ab24]
  CppAD 20180000.0     Algorithmic Differentiation of C++ algorithms developed by B. Bell (github.com/coin-or/CppAD)
  ZLIB 1.3.2           General purpose compression library by J. Gailly and M. Adler (zlib.net)
  LAPACK 3.12.0        General Linear Algebra PACKage (http://www.netlib.org/lapack/)
  MPFR 4.2.2           GNU Multiple Precision Floating-Point Reliable Library (mpfr.org)
  Boost 1.85.0         Boost C++ Libraries (boost.org)
  TinyCThread 1.2      small portable implementation of the C11 threads API (tinycthread.github.io)
  GMP 6.3.0            GNU Multiple Precision Arithmetic Library developed by T. Granlund (gmplib.org)
  AMPL/MP 4.0.4        AMPL .nl file reader library (github.com/ampl/mp)
  Nauty 2.8.8          Computing Graph Automorphism Groups by Brendan D. McKay (users.cecs.anu.edu.au/~bdm/nauty)
  sassy 2.1            Symmetry preprocessor by Markus Anders (github.com/markusa4/sassy)

user parameter file <scip.set> not found - using default parameters

table/nlhdlr_quadratic/active = TRUE
limits/memory = 6000
limits/time = 120
timing/clocktype = 1
limits/nodes = 1

read problem </workspace/local-home/.cache/minlplib/minlplib/osil/powerflow0057r.osil>
============

original problem has 441 variables (0 bin, 0 int, 441 cont) and 726 constraints

presolving:
(round 1, fast)       72 del vars, 223 del conss, 0 add conss, 1283 chg bounds, 0 chg sides, 0 chg coeffs, 0 upgd conss, 0 impls, 0 clqs, 0 implints
(round 2, fast)       72 del vars, 245 del conss, 0 add conss, 1368 chg bounds, 0 chg sides, 0 chg coeffs, 0 upgd conss, 0 impls, 0 clqs, 0 implints
   (0.0s) symmetry computation started: requiring (bin +, int +, cont +), (fixed: bin -, int -, cont -)
   (0.0s) no symmetry present (symcode time: 0.00)
presolving (3 rounds: 3 fast, 1 medium, 1 exhaustive):
 72 deleted vars, 245 deleted constraints, 0 added constraints, 1368 tightened bounds, 0 added holes, 0 changed sides, 0 changed coefficients
 0 implications, 0 cliques, 0 implied integral variables (0 bin, 0 int, 0 cont)
presolved problem has 369 variables (0 bin, 0 int, 369 cont) and 424 constraints
     50 constraints of type <linear>
    374 constraints of type <nonlinear>
Presolving Time: 0.03

 time | node  | left  |LP iter|LP it/n|mem/heur|mdpt |vars |cons |rows |cuts |sepa|confs|strbr|  dualbound   | primalbound  |  gap   | compl. 
  0.1s|     1 |     0 |  1481 |     - |    15M |   0 |1174 | 424 |1302 |   0 |  0 |   0 |   0 |-1.000000e-09 |      --      |    Inf | unknown
  0.1s|     1 |     0 |  1790 |     - |    16M |   0 |1174 | 424 |1374 |  72 |  1 |   0 |   0 |-1.000000e-09 |      --      |    Inf | unknown
  0.2s|     1 |     0 |  2620 |     - |    16M |   0 |1174 | 424 |1445 | 143 |  2 |   0 |   0 |-1.000000e-09 |      --      |    Inf | unknown
  0.3s|     1 |     0 |  3291 |     - |    16M |   0 |1174 | 424 |1516 | 214 |  3 |   0 |   0 |-1.000000e-09 |      --      |    Inf | unknown
  0.4s|     1 |     0 |  3968 |     - |    16M |   0 |1174 | 424 |1583 | 281 |  4 |   0 |   0 |-1.000000e-09 |      --      |    Inf | unknown
  0.4s|     1 |     0 |  4401 |     - |    16M |   0 |1174 | 424 |1652 | 350 |  5 |   0 |   0 |-1.000000e-09 |      --      |    Inf | unknown
  0.5s|     1 |     0 |  4925 |     - |    16M |   0 |1174 | 424 |1723 | 421 |  6 |   0 |   0 |-1.000000e-09 |      --      |    Inf | unknown
  0.6s|     1 |     0 |  5501 |     - |    16M |   0 |1174 | 424 |1790 | 488 |  7 |   0 |   0 |-1.000000e-09 |      --      |    Inf | unknown
  0.7s|     1 |     0 |  6388 |     - |    16M |   0 |1174 | 424 |1857 | 555 |  8 |   0 |   0 |-1.000000e-09 |      --      |    Inf | unknown
  0.8s|     1 |     0 |  7096 |     - |    16M |   0 |1174 | 424 |1923 | 621 |  9 |   0 |   0 |-1.000000e-09 |      --      |    Inf | unknown
  0.8s|     1 |     0 |  7631 |     - |    16M |   0 |1174 | 424 |1164 | 689 | 10 |   0 |   0 |-1.000000e-09 |      --      |    Inf | unknown
  0.9s|     1 |     0 |  8038 |     - |    16M |   0 |1174 | 424 |1231 | 756 | 11 |   0 |   0 |-1.000000e-09 |      --      |    Inf | unknown
 15.3s|     1 |     0 | 94282 |     - |    16M |   0 |1174 | 424 |1231 | 756 | 11 |   0 |   0 |-1.000000e-09 |      --      |    Inf | unknown
 15.3s|     1 |     0 | 94958 |     - |    16M |   0 |1174 | 424 |1304 | 829 | 12 |   0 |   0 |-1.000000e-09 |      --      |    Inf | unknown
 15.5s|     1 |     0 | 96007 |     - |    16M |   0 |1174 | 424 |1376 | 901 | 13 |   0 |   0 |-1.000000e-09 |      --      |    Inf | unknown
 time | node  | left  |LP iter|LP it/n|mem/heur|mdpt |vars |cons |rows |cuts |sepa|confs|strbr|  dualbound   | primalbound  |  gap   | compl. 
 15.6s|     1 |     0 | 96750 |     - |    16M |   0 |1174 | 424 |1170 | 974 | 14 |   0 |   0 |-1.000000e-09 |      --      |    Inf | unknown
 15.7s|     1 |     0 | 97230 |     - |    16M |   0 |1174 | 424 |1244 |1048 | 15 |   0 |   0 |-1.000000e-09 |      --      |    Inf | unknown
 15.8s|     1 |     0 | 98028 |     - |    16M |   0 |1174 | 424 |1320 |1124 | 16 |   0 |   0 |-1.000000e-09 |      --      |    Inf | unknown
 15.8s|     1 |     0 | 98598 |     - |    17M |   0 |1174 | 424 |1392 |1196 | 17 |   0 |   0 |-1.000000e-09 |      --      |    Inf | unknown
 15.9s|     1 |     0 | 99457 |     - |    17M |   0 |1174 | 424 |1463 |1267 | 18 |   0 |   0 |-1.000000e-09 |      --      |    Inf | unknown
 16.0s|     1 |     0 |100204 |     - |    17M |   0 |1174 | 424 |1530 |1334 | 19 |   0 |   0 |-1.000000e-09 |      --      |    Inf | unknown
 16.1s|     1 |     0 |100858 |     - |    17M |   0 |1174 | 424 |1223 |1401 | 20 |   0 |   0 |-1.000000e-09 |      --      |    Inf | unknown
 16.1s|     1 |     0 |101262 |     - |    17M |   0 |1174 | 424 |1287 |1465 | 21 |   0 |   0 |-1.000000e-09 |      --      |    Inf | unknown
 16.2s|     1 |     0 |101787 |     - |    17M |   0 |1174 | 424 |1360 |1538 | 22 |   0 |   0 |-1.000000e-09 |      --      |    Inf | unknown
 36.7s|     1 |     0 |222402 |     - |    17M |   0 |1174 | 424 |1408 |1586 | 22 |   0 |   0 |-1.000000e-09 |      --      |    Inf | unknown
 36.7s|     1 |     0 |223086 |     - |    17M |   0 |1174 | 424 |1475 |1653 | 23 |   0 |   0 |-1.000000e-09 |      --      |    Inf | unknown
 36.8s|     1 |     0 |223483 |     - |    17M |   0 |1174 | 424 |1193 |1676 | 24 |   0 |   0 |-1.000000e-09 |      --      |    Inf | unknown
 36.9s|     1 |     0 |224023 |     - |    17M |   0 |1174 | 424 |1259 |1742 | 25 |   0 |   0 |-1.000000e-09 |      --      |    Inf | unknown
 36.9s|     1 |     0 |224384 |     - |    17M |   0 |1174 | 424 |1316 |1799 | 26 |   0 |   0 |-1.000000e-09 |      --      |    Inf | unknown
 36.9s|     1 |     0 |224852 |     - |    17M |   0 |1174 | 424 |1386 |1869 | 27 |   0 |   0 |-1.000000e-09 |      --      |    Inf | unknown
 time | node  | left  |LP iter|LP it/n|mem/heur|mdpt |vars |cons |rows |cuts |sepa|confs|strbr|  dualbound   | primalbound  |  gap   | compl. 
 37.0s|     1 |     0 |225085 |     - |    17M |   0 |1174 | 424 |1408 |1891 | 28 |   0 |   0 |-1.000000e-09 |      --      |    Inf | unknown
 37.1s|     1 |     0 |225853 |     - |    17M |   0 |1174 | 424 |1476 |1959 | 29 |   0 |   0 |-1.000000e-09 |      --      |    Inf | unknown
 37.1s|     1 |     0 |225948 |     - |    17M |   0 |1174 | 424 |1120 |1975 | 30 |   0 |   0 |-1.000000e-09 |      --      |    Inf | unknown
 37.1s|     1 |     0 |226379 |     - |    17M |   0 |1174 | 424 |1183 |2038 | 31 |   0 |   0 |-1.000000e-09 |      --      |    Inf | unknown
 37.1s|     1 |     0 |226594 |     - |    17M |   0 |1174 | 424 |1216 |2071 | 32 |   0 |   0 |-1.000000e-09 |      --      |    Inf | unknown
 37.2s|     1 |     0 |227220 |     - |    17M |   0 |1174 | 424 |1286 |2141 | 33 |   0 |   0 |-1.000000e-09 |      --      |    Inf | unknown
 37.2s|     1 |     0 |227475 |     - |    17M |   0 |1174 | 424 |1320 |2175 | 34 |   0 |   0 |-1.000000e-09 |      --      |    Inf | unknown
 37.3s|     1 |     0 |228430 |     - |    17M |   0 |1174 | 424 |1391 |2246 | 35 |   0 |   0 |-1.000000e-09 |      --      |    Inf | unknown
 37.4s|     1 |     0 |228996 |     - |    17M |   0 |1174 | 424 |1112 |2294 | 36 |   0 |   0 |-1.000000e-09 |      --      |    Inf | unknown
 37.5s|     1 |     0 |229718 |     - |    17M |   0 |1174 | 424 |1178 |2360 | 37 |   0 |   0 |-1.000000e-09 |      --      |    Inf | unknown
 37.5s|     1 |     0 |229920 |     - |    17M |   0 |1174 | 424 |1232 |2414 | 38 |   0 |   0 |-1.000000e-09 |      --      |    Inf | unknown
 37.6s|     1 |     0 |230674 |     - |    17M |   0 |1174 | 424 |1302 |2484 | 39 |   0 |   0 |-1.000000e-09 |      --      |    Inf | unknown
 37.6s|     1 |     0 |230913 |     - |    17M |   0 |1174 | 424 |1347 |2529 | 40 |   0 |   0 |-1.000000e-09 |      --      |    Inf | unknown
 37.7s|     1 |     0 |231906 |     - |    17M |   0 |1174 | 424 |1413 |2595 | 41 |   0 |   0 |-1.000000e-09 |      --      |    Inf | unknown
 37.8s|     1 |     0 |232450 |     - |    17M |   0 |1174 | 424 |1187 |2626 | 42 |   0 |   0 |-1.000000e-09 |      --      |    Inf | unknown
 time | node  | left  |LP iter|LP it/n|mem/heur|mdpt |vars |cons |rows |cuts |sepa|confs|strbr|  dualbound   | primalbound  |  gap   | compl. 
 37.9s|     1 |     0 |233337 |     - |    17M |   0 |1174 | 424 |1251 |2690 | 43 |   0 |   0 | 3.037817e+03 |      --      |    Inf | unknown
 37.9s|     1 |     0 |233581 |     - |    17M |   0 |1174 | 424 |1344 |2783 | 44 |   0 |   0 | 3.346218e+03 |      --      |    Inf | unknown
 38.0s|     1 |     0 |234117 |     - |    17M |   0 |1174 | 424 |1414 |2853 | 45 |   0 |   0 | 4.372088e+03 |      --      |    Inf | unknown
 38.0s|     1 |     0 |234174 |     - |    17M |   0 |1174 | 424 |1431 |2870 | 46 |   0 |   0 | 4.426328e+03 |      --      |    Inf | unknown
 38.0s|     1 |     0 |234637 |     - |    17M |   0 |1174 | 424 |1500 |2939 | 47 |   0 |   0 | 5.569046e+03 |      --      |    Inf | unknown
 38.0s|     1 |     0 |234671 |     - |    17M |   0 |1174 | 424 |1256 |2951 | 48 |   0 |   0 | 6.064959e+03 |      --      |    Inf | unknown
 38.1s|     1 |     0 |234977 |     - |    17M |   0 |1174 | 424 |1324 |3019 | 49 |   0 |   0 | 7.246761e+03 |      --      |    Inf | unknown
 38.1s|     1 |     0 |235006 |     - |    17M |   0 |1174 | 424 |1337 |3032 | 50 |   0 |   0 | 7.336282e+03 |      --      |    Inf | unknown
 38.1s|     1 |     0 |235515 |     - |    17M |   0 |1174 | 424 |1405 |3100 | 51 |   0 |   0 | 9.699422e+03 |      --      |    Inf | unknown
 38.1s|     1 |     0 |235592 |     - |    17M |   0 |1174 | 424 |1429 |3124 | 52 |   0 |   0 | 9.827301e+03 |      --      |    Inf | unknown
 38.2s|     1 |     0 |236040 |     - |    17M |   0 |1174 | 424 |1498 |3193 | 53 |   0 |   0 | 1.123904e+04 |      --      |    Inf | unknown
 38.2s|     1 |     0 |236075 |     - |    17M |   0 |1174 | 424 |1291 |3206 | 54 |   0 |   0 | 1.125488e+04 |      --      |    Inf | unknown
 38.2s|     1 |     0 |236598 |     - |    17M |   0 |1174 | 424 |1362 |3277 | 55 |   0 |   0 | 1.297547e+04 |      --      |    Inf | unknown
 38.2s|     1 |     0 |236613 |     - |    17M |   0 |1174 | 424 |1374 |3289 | 56 |   0 |   0 | 1.299080e+04 |      --      |    Inf | unknown
 38.3s|     1 |     0 |237076 |     - |    17M |   0 |1174 | 424 |1440 |3355 | 57 |   0 |   0 | 1.404075e+04 |      --      |    Inf | unknown
 time | node  | left  |LP iter|LP it/n|mem/heur|mdpt |vars |cons |rows |cuts |sepa|confs|strbr|  dualbound   | primalbound  |  gap   | compl. 
 38.3s|     1 |     0 |237095 |     - |    17M |   0 |1174 | 424 |1450 |3365 | 58 |   0 |   0 | 1.405542e+04 |      --      |    Inf | unknown
 38.4s|     1 |     0 |237735 |     - |    17M |   0 |1174 | 424 |1518 |3433 | 59 |   0 |   0 | 1.511940e+04 |      --      |    Inf | unknown
 38.4s|     1 |     0 |237747 |     - |    17M |   0 |1174 | 424 |1299 |3445 | 60 |   0 |   0 | 1.512751e+04 |      --      |    Inf | unknown
 38.4s|     1 |     0 |238059 |     - |    17M |   0 |1174 | 424 |1365 |3511 | 61 |   0 |   0 | 1.683882e+04 |      --      |    Inf | unknown
 38.4s|     1 |     0 |238097 |     - |    17M |   0 |1174 | 424 |1376 |3522 | 62 |   0 |   0 | 1.685374e+04 |      --      |    Inf | unknown
 38.5s|     1 |     0 |238887 |     - |    17M |   0 |1174 | 424 |1444 |3590 | 63 |   0 |   0 | 1.842375e+04 |      --      |    Inf | unknown
 38.5s|     1 |     0 |238897 |     - |    17M |   0 |1174 | 424 |1451 |3597 | 64 |   0 |   0 | 1.843853e+04 |      --      |    Inf | unknown
 38.6s|     1 |     0 |240359 |     - |    17M |   0 |1174 | 424 |1513 |3659 | 65 |   0 |   0 | 2.082180e+04 |      --      |    Inf | unknown
 38.6s|     1 |     0 |240487 |     - |    17M |   0 |1174 | 424 |1312 |3697 | 66 |   0 |   0 | 2.088488e+04 |      --      |    Inf | unknown
 38.6s|     1 |     0 |240727 |     - |    17M |   0 |1174 | 424 |1377 |3762 | 67 |   0 |   0 | 2.152306e+04 |      --      |    Inf | unknown
 38.6s|     1 |     0 |240781 |     - |    17M |   0 |1174 | 424 |1388 |3773 | 68 |   0 |   0 | 2.158694e+04 |      --      |    Inf | unknown
 38.7s|     1 |     0 |241575 |     - |    17M |   0 |1174 | 424 |1451 |3836 | 69 |   0 |   0 | 2.238848e+04 |      --      |    Inf | unknown
 38.7s|     1 |     0 |241614 |     - |    17M |   0 |1174 | 424 |1464 |3849 | 70 |   0 |   0 | 2.240100e+04 |      --      |    Inf | unknown
 38.8s|     1 |     0 |242323 |     - |    17M |   0 |1174 | 424 |1532 |3917 | 71 |   0 |   0 | 2.308741e+04 |      --      |    Inf | unknown
 38.8s|     1 |     0 |242379 |     - |    17M |   0 |1174 | 424 |1309 |3924 | 72 |   0 |   0 | 2.310879e+04 |      --      |    Inf | unknown
 time | node  | left  |LP iter|LP it/n|mem/heur|mdpt |vars |cons |rows |cuts |sepa|confs|strbr|  dualbound   | primalbound  |  gap   | compl. 
 38.8s|     1 |     0 |242711 |     - |    17M |   0 |1174 | 424 |1375 |3990 | 73 |   0 |   0 | 2.374514e+04 |      --      |    Inf | unknown
 38.8s|     1 |     0 |242727 |     - |    17M |   0 |1174 | 424 |1382 |3997 | 74 |   0 |   0 | 2.375291e+04 |      --      |    Inf | unknown
 38.9s|     1 |     0 |243390 |     - |    17M |   0 |1174 | 424 |1443 |4058 | 75 |   0 |   0 | 2.455009e+04 |      --      |    Inf | unknown
 38.9s|     1 |     0 |243407 |     - |    17M |   0 |1174 | 424 |1452 |4067 | 76 |   0 |   0 | 2.455686e+04 |      --      |    Inf | unknown
 38.9s|     1 |     0 |244225 |     - |    17M |   0 |1174 | 424 |1515 |4130 | 77 |   0 |   0 | 2.588353e+04 |      --      |    Inf | unknown
 38.9s|     1 |     0 |244284 |     - |    17M |   0 |1174 | 424 |1277 |4150 | 78 |   0 |   0 | 2.589529e+04 |      --      |    Inf | unknown
 39.0s|     1 |     0 |244648 |     - |    17M |   0 |1174 | 424 |1344 |4217 | 79 |   0 |   0 | 2.635003e+04 |      --      |    Inf | unknown
 39.0s|     1 |     0 |244663 |     - |    17M |   0 |1174 | 424 |1352 |4225 | 80 |   0 |   0 | 2.635126e+04 |      --      |    Inf | unknown
 39.0s|     1 |     0 |245224 |     - |    17M |   0 |1174 | 424 |1421 |4294 | 81 |   0 |   0 | 2.698573e+04 |      --      |    Inf | unknown
 39.0s|     1 |     0 |245245 |     - |    17M |   0 |1174 | 424 |1431 |4304 | 82 |   0 |   0 | 2.698787e+04 |      --      |    Inf | unknown
 39.0s|     1 |     0 |245638 |     - |    17M |   0 |1174 | 424 |1501 |4374 | 83 |   0 |   0 | 2.735027e+04 |      --      |    Inf | unknown
 39.0s|     1 |     0 |245644 |     - |    17M |   0 |1174 | 424 |1281 |4381 | 84 |   0 |   0 | 2.735086e+04 |      --      |    Inf | unknown
 39.1s|     1 |     0 |246290 |     - |    17M |   0 |1174 | 424 |1347 |4447 | 85 |   0 |   0 | 2.833575e+04 |      --      |    Inf | unknown
 39.1s|     1 |     0 |246304 |     - |    17M |   0 |1174 | 424 |1354 |4454 | 86 |   0 |   0 | 2.833712e+04 |      --      |    Inf | unknown
 39.2s|     1 |     0 |247259 |     - |    17M |   0 |1174 | 424 |1425 |4525 | 87 |   0 |   0 | 2.875159e+04 |      --      |    Inf | unknown
 time | node  | left  |LP iter|LP it/n|mem/heur|mdpt |vars |cons |rows |cuts |sepa|confs|strbr|  dualbound   | primalbound  |  gap   | compl. 
 39.2s|     1 |     0 |247296 |     - |    17M |   0 |1174 | 424 |1435 |4535 | 88 |   0 |   0 | 2.875305e+04 |      --      |    Inf | unknown
 39.2s|     1 |     0 |248263 |     - |    17M |   0 |1174 | 424 |1504 |4604 | 89 |   0 |   0 | 2.928035e+04 |      --      |    Inf | unknown
 39.2s|     1 |     0 |248288 |     - |    17M |   0 |1174 | 424 |1261 |4614 | 90 |   0 |   0 | 2.928236e+04 |      --      |    Inf | unknown
 39.3s|     1 |     0 |248552 |     - |    17M |   0 |1174 | 424 |1329 |4682 | 91 |   0 |   0 | 2.953721e+04 |      --      |    Inf | unknown
 39.3s|     1 |     0 |248609 |     - |    17M |   0 |1174 | 424 |1342 |4695 | 92 |   0 |   0 | 2.955720e+04 |      --      |    Inf | unknown
 39.3s|     1 |     0 |248998 |     - |    17M |   0 |1174 | 424 |1409 |4762 | 93 |   0 |   0 | 3.004509e+04 |      --      |    Inf | unknown
 39.3s|     1 |     0 |249007 |     - |    17M |   0 |1174 | 424 |1416 |4769 | 94 |   0 |   0 | 3.004544e+04 |      --      |    Inf | unknown
 39.5s|     1 |     0 |251057 |     - |    17M |   0 |1174 | 424 |1485 |4838 | 95 |   0 |   0 | 3.183550e+04 |      --      |    Inf | unknown
 39.5s|     1 |     0 |251131 |     - |    17M |   0 |1174 | 424 |1335 |4877 | 96 |   0 |   0 | 3.184474e+04 |      --      |    Inf | unknown
 39.6s|     1 |     0 |251688 |     - |    17M |   0 |1174 | 424 |1415 |4957 | 97 |   0 |   0 | 3.201402e+04 |      --      |    Inf | unknown
 39.6s|     1 |     0 |251711 |     - |    17M |   0 |1174 | 424 |1429 |4971 | 98 |   0 |   0 | 3.201819e+04 |      --      |    Inf | unknown
 39.7s|     1 |     0 |252431 |     - |    17M |   0 |1174 | 424 |1504 |5046 | 99 |   0 |   0 | 3.232075e+04 |      --      |    Inf | unknown
 39.7s|     1 |     0 |252477 |     - |    17M |   0 |1174 | 424 |1521 |5063 |100 |   0 |   0 | 3.232499e+04 |      --      |    Inf | unknown
 39.8s|     1 |     0 |254315 |     - |    17M |   0 |1174 | 424 |1588 |5130 |101 |   0 |   0 | 3.310080e+04 |      --      |    Inf | unknown
 39.8s|     1 |     0 |254352 |     - |    17M |   0 |1174 | 424 |1379 |5140 |102 |   0 |   0 | 3.310240e+04 |      --      |    Inf | unknown
 time | node  | left  |LP iter|LP it/n|mem/heur|mdpt |vars |cons |rows |cuts |sepa|confs|strbr|  dualbound   | primalbound  |  gap   | compl. 
 39.9s|     1 |     0 |255116 |     - |    17M |   0 |1174 | 424 |1448 |5209 |103 |   0 |   0 | 3.324599e+04 |      --      |    Inf | unknown
 39.9s|     1 |     0 |255141 |     - |    17M |   0 |1174 | 424 |1457 |5218 |104 |   0 |   0 | 3.324850e+04 |      --      |    Inf | unknown
 40.0s|     1 |     0 |257036 |     - |    17M |   0 |1174 | 424 |1525 |5286 |105 |   0 |   0 | 3.355382e+04 |      --      |    Inf | unknown
 40.0s|     1 |     0 |257048 |     - |    17M |   0 |1174 | 424 |1532 |5293 |106 |   0 |   0 | 3.355393e+04 |      --      |    Inf | unknown
 40.2s|     1 |     0 |259205 |     - |    17M |   0 |1174 | 424 |1603 |5364 |107 |   0 |   0 | 3.393810e+04 |      --      |    Inf | unknown
 40.2s|     1 |     0 |259234 |     - |    17M |   0 |1174 | 424 |1323 |5377 |108 |   0 |   0 | 3.393888e+04 |      --      |    Inf | unknown
 40.2s|     1 |     0 |259490 |     - |    17M |   0 |1174 | 424 |1394 |5448 |109 |   0 |   0 | 3.400693e+04 |      --      |    Inf | unknown
 40.2s|     1 |     0 |259507 |     - |    17M |   0 |1174 | 424 |1402 |5456 |110 |   0 |   0 | 3.400740e+04 |      --      |    Inf | unknown
 40.3s|     1 |     0 |260646 |     - |    17M |   0 |1174 | 424 |1468 |5522 |111 |   0 |   0 | 3.407183e+04 |      --      |    Inf | unknown
 40.3s|     1 |     0 |260656 |     - |    17M |   0 |1174 | 424 |1475 |5529 |112 |   0 |   0 | 3.407205e+04 |      --      |    Inf | unknown
 40.5s|     1 |     0 |263570 |     - |    17M |   0 |1174 | 424 |1537 |5591 |113 |   0 |   0 | 3.432422e+04 |      --      |    Inf | unknown
 40.5s|     1 |     0 |263590 |     - |    17M |   0 |1174 | 424 |1315 |5599 |114 |   0 |   0 | 3.432426e+04 |      --      |    Inf | unknown
 40.5s|     1 |     0 |264027 |     - |    17M |   0 |1174 | 424 |1373 |5657 |115 |   0 |   0 | 3.441736e+04 |      --      |    Inf | unknown
 40.6s|     1 |     0 |264152 |     - |    17M |   0 |1174 | 424 |1381 |5665 |116 |   0 |   0 | 3.442224e+04 |      --      |    Inf | unknown
 40.7s|     1 |     0 |265533 |     - |    17M |   0 |1174 | 424 |1446 |5730 |117 |   0 |   0 | 3.450092e+04 |      --      |    Inf | unknown
 time | node  | left  |LP iter|LP it/n|mem/heur|mdpt |vars |cons |rows |cuts |sepa|confs|strbr|  dualbound   | primalbound  |  gap   | compl. 
 40.7s|     1 |     0 |265548 |     - |    17M |   0 |1174 | 424 |1452 |5736 |118 |   0 |   0 | 3.450093e+04 |      --      |    Inf | unknown
 40.9s|     1 |     0 |268824 |     - |    17M |   0 |1174 | 424 |1510 |5794 |119 |   0 |   0 | 3.519769e+04 |      --      |    Inf | unknown
 40.9s|     1 |     0 |269024 |     - |    17M |   0 |1174 | 424 |1303 |5804 |120 |   0 |   0 | 3.520497e+04 |      --      |    Inf | unknown
 41.0s|     1 |     0 |269368 |     - |    17M |   0 |1174 | 424 |1374 |5875 |121 |   0 |   0 | 3.534635e+04 |      --      |    Inf | unknown
 41.0s|     1 |     0 |269377 |     - |    17M |   0 |1174 | 424 |1381 |5882 |122 |   0 |   0 | 3.534684e+04 |      --      |    Inf | unknown
 41.1s|     1 |     0 |270526 |     - |    17M |   0 |1174 | 424 |1448 |5949 |123 |   0 |   0 | 3.540982e+04 |      --      |    Inf | unknown
 41.1s|     1 |     0 |270562 |     - |    17M |   0 |1174 | 424 |1456 |5957 |124 |   0 |   0 | 3.541009e+04 |      --      |    Inf | unknown
 41.2s|     1 |     0 |272528 |     - |    17M |   0 |1174 | 424 |1521 |6022 |125 |   0 |   0 | 3.553637e+04 |      --      |    Inf | unknown
 41.2s|     1 |     0 |272544 |     - |    17M |   0 |1174 | 424 |1303 |6030 |126 |   0 |   0 | 3.553660e+04 |      --      |    Inf | unknown
 41.3s|     1 |     0 |273262 |     - |    17M |   0 |1174 | 424 |1365 |6092 |127 |   0 |   0 | 3.582487e+04 |      --      |    Inf | unknown
 41.3s|     1 |     0 |273304 |     - |    17M |   0 |1174 | 424 |1376 |6103 |128 |   0 |   0 | 3.583168e+04 |      --      |    Inf | unknown
 41.4s|     1 |     0 |274099 |     - |    17M |   0 |1174 | 424 |1440 |6167 |129 |   0 |   0 | 3.587911e+04 |      --      |    Inf | unknown
 41.4s|     1 |     0 |274122 |     - |    17M |   0 |1174 | 424 |1450 |6177 |130 |   0 |   0 | 3.587981e+04 |      --      |    Inf | unknown
 41.5s|     1 |     0 |275206 |     - |    17M |   0 |1174 | 424 |1516 |6243 |131 |   0 |   0 | 3.595749e+04 |      --      |    Inf | unknown
 41.5s|     1 |     0 |275220 |     - |    17M |   0 |1174 | 424 |1309 |6252 |132 |   0 |   0 | 3.595757e+04 |      --      |    Inf | unknown
 time | node  | left  |LP iter|LP it/n|mem/heur|mdpt |vars |cons |rows |cuts |sepa|confs|strbr|  dualbound   | primalbound  |  gap   | compl. 
 41.6s|     1 |     0 |276024 |     - |    17M |   0 |1174 | 424 |1371 |6314 |133 |   0 |   0 | 3.627017e+04 |      --      |    Inf | unknown
 41.6s|     1 |     0 |276035 |     - |    17M |   0 |1174 | 424 |1378 |6321 |134 |   0 |   0 | 3.627059e+04 |      --      |    Inf | unknown
 41.7s|     1 |     0 |278153 |     - |    17M |   0 |1174 | 424 |1443 |6386 |135 |   0 |   0 | 3.636801e+04 |      --      |    Inf | unknown
 41.7s|     1 |     0 |278175 |     - |    17M |   0 |1174 | 424 |1453 |6396 |136 |   0 |   0 | 3.636868e+04 |      --      |    Inf | unknown
 41.8s|     1 |     0 |279413 |     - |    17M |   0 |1174 | 424 |1521 |6464 |137 |   0 |   0 | 3.641063e+04 |      --      |    Inf | unknown
 41.8s|     1 |     0 |279421 |     - |    17M |   0 |1174 | 424 |1316 |6473 |138 |   0 |   0 | 3.641068e+04 |      --      |    Inf | unknown
 41.9s|     1 |     0 |280383 |     - |    17M |   0 |1174 | 424 |1372 |6529 |139 |   0 |   0 | 3.674588e+04 |      --      |    Inf | unknown
 41.9s|     1 |     0 |280396 |     - |    17M |   0 |1174 | 424 |1380 |6537 |140 |   0 |   0 | 3.674596e+04 |      --      |    Inf | unknown
 42.0s|     1 |     0 |281919 |     - |    17M |   0 |1174 | 424 |1446 |6603 |141 |   0 |   0 | 3.677449e+04 |      --      |    Inf | unknown
 42.0s|     1 |     0 |281929 |     - |    17M |   0 |1174 | 424 |1455 |6612 |142 |   0 |   0 | 3.677456e+04 |      --      |    Inf | unknown
 42.4s|     1 |     0 |286862 |     - |    17M |   0 |1174 | 424 |1514 |6671 |143 |   0 |   0 | 3.717547e+04 |      --      |    Inf | unknown
 42.4s|     1 |     0 |286933 |     - |    17M |   0 |1174 | 424 |1291 |6678 |144 |   0 |   0 | 3.717596e+04 |      --      |    Inf | unknown
 42.4s|     1 |     0 |287405 |     - |    17M |   0 |1174 | 424 |1354 |6741 |145 |   0 |   0 | 3.742062e+04 |      --      |    Inf | unknown
 42.4s|     1 |     0 |287417 |     - |    17M |   0 |1174 | 424 |1360 |6747 |146 |   0 |   0 | 3.742090e+04 |      --      |    Inf | unknown
 42.6s|     1 |     0 |289615 |     - |    17M |   0 |1174 | 424 |1423 |6810 |147 |   0 |   0 | 3.786044e+04 |      --      |    Inf | unknown
 time | node  | left  |LP iter|LP it/n|mem/heur|mdpt |vars |cons |rows |cuts |sepa|confs|strbr|  dualbound   | primalbound  |  gap   | compl. 
 42.6s|     1 |     0 |289816 |     - |    17M |   0 |1174 | 424 |1440 |6827 |148 |   0 |   0 | 3.787541e+04 |      --      |    Inf | unknown
 42.7s|     1 |     0 |290993 |     - |    17M |   0 |1174 | 424 |1512 |6899 |149 |   0 |   0 | 3.792679e+04 |      --      |    Inf | unknown
 42.7s|     1 |     0 |291103 |     - |    17M |   0 |1174 | 424 |1322 |6912 |150 |   0 |   0 | 3.792907e+04 |      --      |    Inf | unknown
 42.7s|     1 |     0 |291362 |     - |    17M |   0 |1174 | 424 |1391 |6981 |151 |   0 |   0 | 3.795518e+04 |      --      |    Inf | unknown
 42.7s|     1 |     0 |291375 |     - |    17M |   0 |1174 | 424 |1404 |6994 |152 |   0 |   0 | 3.795536e+04 |      --      |    Inf | unknown
 42.8s|     1 |     0 |292781 |     - |    17M |   0 |1174 | 424 |1463 |7053 |153 |   0 |   0 | 3.801761e+04 |      --      |    Inf | unknown
 42.8s|     1 |     0 |292818 |     - |    17M |   0 |1174 | 424 |1473 |7063 |154 |   0 |   0 | 3.801807e+04 |      --      |    Inf | unknown
 42.9s|     1 |     0 |294614 |     - |    17M |   0 |1174 | 424 |1539 |7129 |155 |   0 |   0 | 3.812010e+04 |      --      |    Inf | unknown
 42.9s|     1 |     0 |294627 |     - |    17M |   0 |1174 | 424 |1305 |7140 |156 |   0 |   0 | 3.812012e+04 |      --      |    Inf | unknown
 43.0s|     1 |     0 |294937 |     - |    17M |   0 |1174 | 424 |1370 |7205 |157 |   0 |   0 | 3.816470e+04 |      --      |    Inf | unknown
 43.0s|     1 |     0 |294959 |     - |    17M |   0 |1174 | 424 |1380 |7215 |158 |   0 |   0 | 3.816515e+04 |      --      |    Inf | unknown
 43.1s|     1 |     0 |296953 |     - |    17M |   0 |1174 | 424 |1445 |7280 |159 |   0 |   0 | 3.825608e+04 |      --      |    Inf | unknown
 43.1s|     1 |     0 |296957 |     - |    17M |   0 |1174 | 424 |1450 |7285 |160 |   0 |   0 | 3.825609e+04 |      --      |    Inf | unknown
 43.3s|     1 |     0 |299557 |     - |    17M |   0 |1174 | 424 |1511 |7346 |161 |   0 |   0 | 3.839230e+04 |      --      |    Inf | unknown
 43.3s|     1 |     0 |299598 |     - |    17M |   0 |1174 | 424 |1297 |7355 |162 |   0 |   0 | 3.839254e+04 |      --      |    Inf | unknown
 time | node  | left  |LP iter|LP it/n|mem/heur|mdpt |vars |cons |rows |cuts |sepa|confs|strbr|  dualbound   | primalbound  |  gap   | compl. 
 43.3s|     1 |     0 |299780 |     - |    17M |   0 |1174 | 424 |1356 |7414 |163 |   0 |   0 | 3.842004e+04 |      --      |    Inf | unknown
 43.3s|     1 |     0 |299794 |     - |    17M |   0 |1174 | 424 |1364 |7422 |164 |   0 |   0 | 3.842012e+04 |      --      |    Inf | unknown
 43.4s|     1 |     0 |301624 |     - |    17M |   0 |1174 | 424 |1420 |7478 |165 |   0 |   0 | 3.851931e+04 |      --      |    Inf | unknown
 43.4s|     1 |     0 |301631 |     - |    17M |   0 |1174 | 424 |1426 |7484 |166 |   0 |   0 | 3.851936e+04 |      --      |    Inf | unknown
 43.5s|     1 |     0 |302305 |     - |    17M |   0 |1174 | 424 |1493 |7551 |167 |   0 |   0 | 3.854227e+04 |      --      |    Inf | unknown
 43.5s|     1 |     0 |302313 |     - |    17M |   0 |1174 | 424 |1285 |7556 |168 |   0 |   0 | 3.854228e+04 |      --      |    Inf | unknown
 43.5s|     1 |     0 |302610 |     - |    17M |   0 |1174 | 424 |1351 |7622 |169 |   0 |   0 | 3.857526e+04 |      --      |    Inf | unknown
 43.6s|     1 |     0 |302617 |     - |    17M |   0 |1174 | 424 |1353 |7624 |170 |   0 |   0 | 3.857527e+04 |      --      |    Inf | unknown
 43.7s|     1 |     0 |304995 |     - |    17M |   0 |1174 | 424 |1413 |7684 |171 |   0 |   0 | 3.875064e+04 |      --      |    Inf | unknown
 43.7s|     1 |     0 |305029 |     - |    17M |   0 |1174 | 424 |1419 |7690 |172 |   0 |   0 | 3.875136e+04 |      --      |    Inf | unknown
 43.9s|     1 |     0 |307297 |     - |    17M |   0 |1174 | 424 |1482 |7753 |173 |   0 |   0 | 3.894675e+04 |      --      |    Inf | unknown
 43.9s|     1 |     0 |307397 |     - |    17M |   0 |1174 | 424 |1270 |7769 |174 |   0 |   0 | 3.894792e+04 |      --      |    Inf | unknown
 43.9s|     1 |     0 |307605 |     - |    17M |   0 |1174 | 424 |1342 |7841 |175 |   0 |   0 | 3.895794e+04 |      --      |    Inf | unknown
 43.9s|     1 |     0 |307623 |     - |    17M |   0 |1174 | 424 |1352 |7851 |176 |   0 |   0 | 3.895807e+04 |      --      |    Inf | unknown
 43.9s|     1 |     0 |308390 |     - |    17M |   0 |1174 | 424 |1420 |7919 |177 |   0 |   0 | 3.897323e+04 |      --      |    Inf | unknown
 time | node  | left  |LP iter|LP it/n|mem/heur|mdpt |vars |cons |rows |cuts |sepa|confs|strbr|  dualbound   | primalbound  |  gap   | compl. 
 44.0s|     1 |     0 |308393 |     - |    17M |   0 |1174 | 424 |1423 |7922 |178 |   0 |   0 | 3.897323e+04 |      --      |    Inf | unknown
 44.0s|     1 |     0 |309867 |     - |    17M |   0 |1174 | 424 |1474 |7973 |179 |   0 |   0 | 3.903614e+04 |      --      |    Inf | unknown
 44.0s|     1 |     0 |309880 |     - |    17M |   0 |1174 | 424 |1266 |7978 |180 |   0 |   0 | 3.903615e+04 |      --      |    Inf | unknown
 44.1s|     1 |     0 |310508 |     - |    17M |   0 |1174 | 424 |1323 |8035 |181 |   0 |   0 | 3.917903e+04 |      --      |    Inf | unknown
 44.1s|     1 |     0 |310518 |     - |    17M |   0 |1174 | 424 |1324 |8036 |182 |   0 |   0 | 3.917905e+04 |      --      |    Inf | unknown
 44.1s|     1 |     0 |310730 |     - |    17M |   0 |1174 | 424 |1389 |8101 |183 |   0 |   0 | 3.918743e+04 |      --      |    Inf | unknown
 44.1s|     1 |     0 |310735 |     - |    17M |   0 |1174 | 424 |1393 |8105 |184 |   0 |   0 | 3.918745e+04 |      --      |    Inf | unknown
 44.3s|     1 |     0 |313715 |     - |    17M |   0 |1174 | 424 |1448 |8160 |185 |   0 |   0 | 3.945244e+04 |      --      |    Inf | unknown
 44.4s|     1 |     0 |313727 |     - |    17M |   0 |1174 | 424 |1228 |8165 |186 |   0 |   0 | 3.945250e+04 |      --      |    Inf | unknown
 44.4s|     1 |     0 |313880 |     - |    17M |   0 |1174 | 424 |1292 |8229 |187 |   0 |   0 | 3.947086e+04 |      --      |    Inf | unknown
 44.4s|     1 |     0 |313887 |     - |    17M |   0 |1174 | 424 |1298 |8235 |188 |   0 |   0 | 3.947092e+04 |      --      |    Inf | unknown
 44.4s|     1 |     0 |314374 |     - |    17M |   0 |1174 | 424 |1357 |8294 |189 |   0 |   0 | 3.950463e+04 |      --      |    Inf | unknown
 44.4s|     1 |     0 |314381 |     - |    17M |   0 |1174 | 424 |1363 |8300 |190 |   0 |   0 | 3.950465e+04 |      --      |    Inf | unknown
 44.6s|     1 |     0 |316301 |     - |    17M |   0 |1174 | 424 |1418 |8355 |191 |   0 |   0 | 3.960227e+04 |      --      |    Inf | unknown
 44.6s|     1 |     0 |316366 |     - |    17M |   0 |1174 | 424 |1237 |8365 |192 |   0 |   0 | 3.960309e+04 |      --      |    Inf | unknown
 time | node  | left  |LP iter|LP it/n|mem/heur|mdpt |vars |cons |rows |cuts |sepa|confs|strbr|  dualbound   | primalbound  |  gap   | compl. 
 44.6s|     1 |     0 |316669 |     - |    17M |   0 |1174 | 424 |1299 |8427 |193 |   0 |   0 | 3.964224e+04 |      --      |    Inf | unknown
 44.6s|     1 |     0 |316746 |     - |    17M |   0 |1174 | 424 |1309 |8437 |194 |   0 |   0 | 3.964316e+04 |      --      |    Inf | unknown
 44.7s|     1 |     0 |317018 |     - |    17M |   0 |1174 | 424 |1367 |8495 |195 |   0 |   0 | 3.966749e+04 |      --      |    Inf | unknown
 44.7s|     1 |     0 |317071 |     - |    17M |   0 |1174 | 424 |1375 |8503 |196 |   0 |   0 | 3.966910e+04 |      --      |    Inf | unknown
 44.8s|     1 |     0 |318060 |     - |    17M |   0 |1174 | 424 |1428 |8556 |197 |   0 |   0 | 3.970819e+04 |      --      |    Inf | unknown
 44.8s|     1 |     0 |318197 |     - |    17M |   0 |1174 | 424 |1254 |8563 |198 |   0 |   0 | 3.970987e+04 |      --      |    Inf | unknown
 44.8s|     1 |     0 |318585 |     - |    17M |   0 |1174 | 424 |1301 |8610 |199 |   0 |   0 | 3.978215e+04 |      --      |    Inf | unknown
 44.8s|     1 |     0 |318618 |     - |    17M |   0 |1174 | 424 |1311 |8620 |200 |   0 |   0 | 3.978419e+04 |      --      |    Inf | unknown
 44.9s|     1 |     0 |319085 |     - |    17M |   0 |1174 | 424 |1369 |8678 |201 |   0 |   0 | 3.980616e+04 |      --      |    Inf | unknown
 44.9s|     1 |     0 |319103 |     - |    17M |   0 |1174 | 424 |1374 |8683 |202 |   0 |   0 | 3.980625e+04 |      --      |    Inf | unknown
 44.9s|     1 |     0 |319640 |     - |    17M |   0 |1174 | 424 |1424 |8733 |203 |   0 |   0 | 3.981800e+04 |      --      |    Inf | unknown
 44.9s|     1 |     0 |319644 |     - |    17M |   0 |1174 | 424 |1230 |8736 |204 |   0 |   0 | 3.981802e+04 |      --      |    Inf | unknown
 45.0s|     1 |     0 |319836 |     - |    17M |   0 |1174 | 424 |1276 |8782 |205 |   0 |   0 | 3.988983e+04 |      --      |    Inf | unknown
 45.0s|     1 |     0 |319843 |     - |    17M |   0 |1174 | 424 |1281 |8787 |206 |   0 |   0 | 3.988984e+04 |      --      |    Inf | unknown
 45.0s|     1 |     0 |320005 |     - |    17M |   0 |1174 | 424 |1334 |8840 |207 |   0 |   0 | 3.990146e+04 |      --      |    Inf | unknown
 time | node  | left  |LP iter|LP it/n|mem/heur|mdpt |vars |cons |rows |cuts |sepa|confs|strbr|  dualbound   | primalbound  |  gap   | compl. 
 45.0s|     1 |     0 |320008 |     - |    17M |   0 |1174 | 424 |1336 |8842 |208 |   0 |   0 | 3.990146e+04 |      --      |    Inf | unknown
 45.0s|     1 |     0 |320315 |     - |    17M |   0 |1174 | 424 |1381 |8887 |209 |   0 |   0 | 4.000631e+04 |      --      |    Inf | unknown
 45.0s|     1 |     0 |320326 |     - |    17M |   0 |1174 | 424 |1192 |8892 |210 |   0 |   0 | 4.000646e+04 |      --      |    Inf | unknown
 45.1s|     1 |     0 |320504 |     - |    17M |   0 |1174 | 424 |1261 |8961 |211 |   0 |   0 | 4.001383e+04 |      --      |    Inf | unknown
 45.1s|     1 |     0 |320508 |     - |    17M |   0 |1174 | 424 |1265 |8965 |212 |   0 |   0 | 4.001383e+04 |      --      |    Inf | unknown
 45.1s|     1 |     0 |320818 |     - |    17M |   0 |1174 | 424 |1311 |9011 |213 |   0 |   0 | 4.007774e+04 |      --      |    Inf | unknown
 45.1s|     1 |     0 |320823 |     - |    17M |   0 |1174 | 424 |1315 |9015 |214 |   0 |   0 | 4.007780e+04 |      --      |    Inf | unknown
 45.1s|     1 |     0 |320982 |     - |    17M |   0 |1174 | 424 |1376 |9076 |215 |   0 |   0 | 4.008592e+04 |      --      |    Inf | unknown
 45.1s|     1 |     0 |320987 |     - |    17M |   0 |1174 | 424 |1211 |9080 |216 |   0 |   0 | 4.008592e+04 |      --      |    Inf | unknown
 45.2s|     1 |     0 |321240 |     - |    17M |   0 |1174 | 424 |1261 |9130 |217 |   0 |   0 | 4.011522e+04 |      --      |    Inf | unknown
 45.2s|     1 |     0 |321244 |     - |    17M |   0 |1174 | 424 |1263 |9132 |218 |   0 |   0 | 4.011523e+04 |      --      |    Inf | unknown
 45.2s|     1 |     0 |321600 |     - |    17M |   0 |1174 | 424 |1311 |9180 |219 |   0 |   0 | 4.019283e+04 |      --      |    Inf | unknown
 45.2s|     1 |     0 |321622 |     - |    17M |   0 |1174 | 424 |1317 |9186 |220 |   0 |   0 | 4.019284e+04 |      --      |    Inf | unknown
 45.2s|     1 |     0 |321756 |     - |    17M |   0 |1174 | 424 |1370 |9239 |221 |   0 |   0 | 4.019622e+04 |      --      |    Inf | unknown
 45.2s|     1 |     0 |321759 |     - |    17M |   0 |1174 | 424 |1182 |9242 |222 |   0 |   0 | 4.019622e+04 |      --      |    Inf | unknown
 time | node  | left  |LP iter|LP it/n|mem/heur|mdpt |vars |cons |rows |cuts |sepa|confs|strbr|  dualbound   | primalbound  |  gap   | compl. 
 45.2s|     1 |     0 |321906 |     - |    17M |   0 |1174 | 424 |1231 |9291 |223 |   0 |   0 | 4.019976e+04 |      --      |    Inf | unknown
 45.2s|     1 |     0 |321907 |     - |    17M |   0 |1174 | 424 |1232 |9292 |224 |   0 |   0 | 4.019976e+04 |      --      |    Inf | unknown
 45.3s|     1 |     0 |322159 |     - |    17M |   0 |1174 | 424 |1276 |9336 |225 |   0 |   0 | 4.029966e+04 |      --      |    Inf | unknown
 45.3s|     1 |     0 |322189 |     - |    17M |   0 |1174 | 424 |1284 |9344 |226 |   0 |   0 | 4.030007e+04 |      --      |    Inf | unknown
 45.3s|     1 |     0 |322600 |     - |    17M |   0 |1174 | 424 |1335 |9395 |227 |   0 |   0 | 4.035166e+04 |      --      |    Inf | unknown
 45.3s|     1 |     0 |322610 |     - |    17M |   0 |1174 | 424 |1166 |9399 |228 |   0 |   0 | 4.035169e+04 |      --      |    Inf | unknown
 45.3s|     1 |     0 |322811 |     - |    17M |   0 |1174 | 424 |1229 |9462 |229 |   0 |   0 | 4.035980e+04 |      --      |    Inf | unknown
 45.4s|     1 |     0 |322830 |     - |    17M |   0 |1174 | 424 |1233 |9466 |230 |   0 |   0 | 4.035984e+04 |      --      |    Inf | unknown
 45.4s|     1 |     0 |323090 |     - |    17M |   0 |1174 | 424 |1283 |9516 |231 |   0 |   0 | 4.038736e+04 |      --      |    Inf | unknown
 45.4s|     1 |     0 |323105 |     - |    17M |   0 |1174 | 424 |1295 |9528 |232 |   0 |   0 | 4.038772e+04 |      --      |    Inf | unknown
 45.4s|     1 |     0 |323365 |     - |    17M |   0 |1174 | 424 |1361 |9594 |233 |   0 |   0 | 4.040764e+04 |      --      |    Inf | unknown
 45.4s|     1 |     0 |323387 |     - |    17M |   0 |1174 | 424 |1220 |9600 |234 |   0 |   0 | 4.040794e+04 |      --      |    Inf | unknown
 45.5s|     1 |     0 |323667 |     - |    17M |   0 |1174 | 424 |1274 |9654 |235 |   0 |   0 | 4.041996e+04 |      --      |    Inf | unknown
 45.5s|     1 |     0 |323677 |     - |    17M |   0 |1174 | 424 |1281 |9661 |236 |   0 |   0 | 4.041999e+04 |      --      |    Inf | unknown
 45.5s|     1 |     0 |323805 |     - |    17M |   0 |1174 | 424 |1339 |9719 |237 |   0 |   0 | 4.042424e+04 |      --      |    Inf | unknown
 time | node  | left  |LP iter|LP it/n|mem/heur|mdpt |vars |cons |rows |cuts |sepa|confs|strbr|  dualbound   | primalbound  |  gap   | compl. 
 45.5s|     1 |     0 |323814 |     - |    17M |   0 |1174 | 424 |1344 |9724 |238 |   0 |   0 | 4.042424e+04 |      --      |    Inf | unknown
 45.5s|     1 |     0 |324127 |     - |    17M |   0 |1174 | 424 |1390 |9770 |239 |   0 |   0 | 4.043166e+04 |      --      |    Inf | unknown
 45.5s|     1 |     0 |324128 |     - |    17M |   0 |1174 | 424 |1184 |9771 |240 |   0 |   0 | 4.043166e+04 |      --      |    Inf | unknown
 45.5s|     1 |     0 |324512 |     - |    17M |   0 |1174 | 424 |1224 |9811 |241 |   0 |   0 | 4.044880e+04 |      --      |    Inf | unknown
 45.5s|     1 |     0 |324523 |     - |    17M |   0 |1174 | 424 |1230 |9817 |242 |   0 |   0 | 4.044881e+04 |      --      |    Inf | unknown
 45.6s|     1 |     0 |324740 |     - |    17M |   0 |1174 | 424 |1284 |9871 |243 |   0 |   0 | 4.048068e+04 |      --      |    Inf | unknown
 45.6s|     1 |     0 |324747 |     - |    17M |   0 |1174 | 424 |1290 |9877 |244 |   0 |   0 | 4.048069e+04 |      --      |    Inf | unknown
 45.6s|     1 |     0 |324841 |     - |    17M |   0 |1174 | 424 |1345 |9932 |245 |   0 |   0 | 4.048204e+04 |      --      |    Inf | unknown
 45.6s|     1 |     0 |324845 |     - |    17M |   0 |1174 | 424 |1168 |9936 |246 |   0 |   0 | 4.048204e+04 |      --      |    Inf | unknown
 45.6s|     1 |     0 |325223 |     - |    17M |   0 |1174 | 424 |1208 |9976 |247 |   0 |   0 | 4.050698e+04 |      --      |    Inf | unknown
 45.6s|     1 |     0 |325224 |     - |    17M |   0 |1174 | 424 |1209 |9977 |248 |   0 |   0 | 4.050698e+04 |      --      |    Inf | unknown
 45.7s|     1 |     0 |325403 |     - |    17M |   0 |1174 | 424 |1257 |  10k|249 |   0 |   0 | 4.052083e+04 |      --      |    Inf | unknown
 45.7s|     1 |     0 |325404 |     - |    17M |   0 |1174 | 424 |1258 |  10k|250 |   0 |   0 | 4.052083e+04 |      --      |    Inf | unknown
 45.7s|     1 |     0 |325499 |     - |    17M |   0 |1174 | 424 |1306 |  10k|251 |   0 |   0 | 4.052155e+04 |      --      |    Inf | unknown
 45.7s|     1 |     2 |325499 |     - |    17M |   0 |1174 | 424 |1306 |  10k|252 |   0 |   0 | 4.052155e+04 |      --      |    Inf | unknown

SCIP Status        : solving was interrupted [node limit reached]
Solving Time (sec) : 45.69
Solving Nodes      : 1
Primal Bound       : +1.00000000000000e+20 (0 solutions)
Dual Bound         : +4.05215520054702e+04
Gap                : infinite


SCIP Status        : solving was interrupted [node limit reached]
Total Time         :      45.70
  solving          :      45.69
  presolving       :       0.03 (included in solving)
  reading          :       0.01
  copying          :       0.01 (1 #copies) (minimal 0.01, maximal 0.01, average 0.01)
Original Problem   :
  Problem name     : powerflow0057r
  Variables        : 441 (0 binary, 0 integer, 441 continuous)
  Implied int vars : 0 (0 binary, 0 integer, 0 continuous)
  Constraints      : 726 initial, 726 maximal
  Objective        : minimize, 8 non-zeros (abs.min = 1, abs.max = 4000)
Presolved Problem  :
  Problem name     : t_powerflow0057r
  Variables        : 1174 (0 binary, 0 integer, 1174 continuous)
  Implied int vars : 0 (0 binary, 0 integer, 0 continuous)
  Constraints      : 424 initial, 424 maximal
  Objective        : minimize, 8 non-zeros (abs.min = 1, abs.max = 4000)
  Nonzeros         : 1864 constraint, 0 clique table
Presolvers         :   ExecTime  SetupTime  Calls  FixedVars   AggrVars   ChgTypes  ChgBounds   AddHoles    DelCons    AddCons   ChgSides   ChgCoefs
  boundshift       :       0.00       0.00      0          0          0          0          0          0          0          0          0          0
  convertinttobin  :       0.00       0.00      0          0          0          0          0          0          0          0          0          0
  domcol           :       0.00       0.00      1          0          0          0          0          0          0          0          0          0
  dualagg          :       0.00       0.00      0          0          0          0          0          0          0          0          0          0
  dualcomp         :       0.00       0.00      1          0          0          0          0          0          0          0          0          0
  dualinfer        :       0.00       0.00      0          0          0          0          0          0          0          0          0          0
  dualsparsify     :       0.00       0.00      1          0          0          0          0          0          0          0          0          0
  gateextraction   :       0.00       0.00      0          0          0          0          0          0          0          0          0          0
  implics          :       0.00       0.00      1          0          0          0          0          0          0          0          0          0
  implint          :       0.00       0.00      0          0          0          0          0          0          0          0          0          0
  inttobinary      :       0.00       0.00      0          0          0          0          0          0          0          0          0          0
  qpkktref         :       0.00       0.00      0          0          0          0          0          0          0          0          0          0
  redvub           :       0.00       0.00      0          0          0          0          0          0          0          0          0          0
  sparsify         :       0.00       0.00      1          0          0          0          0          0          0          0          0          0
  stuffing         :       0.00       0.00      0          0          0          0          0          0          0          0          0          0
  trivial          :       0.00       0.00      3          0          0          0          0          0          0          0          0          0
  tworowbnd        :       0.00       0.00      0          0          0          0          0          0          0          0          0          0
  dualfix          :       0.00       0.00      3          0          0          0          0          0          0          0          0          0
  genvbounds       :       0.00       0.00      0          0          0          0          0          0          0          0          0          0
  probing          :       0.00       0.00      0          0          0          0          0          0          0          0          0          0
  pseudoobj        :       0.00       0.00      0          0          0          0          0          0          0          0          0          0
  symmetry         :       0.00       0.00      1          0          0          0          0          0          0          0          0          0
  vbounds          :       0.00       0.00      0          0          0          0          0          0          0          0          0          0
  linear           :       0.00       0.00      4          3         69          0        119          0         93          0          0          0
  nonlinear        :       0.03       0.01      5          0          0          0       1249          0        152          0          0          0
  components       :       0.00       0.00      1          0          0          0          0          0          0          0          0          0
  root node        :          -          -      -          0          -          -        744          -          -          -          -          -
Constraints        :     Number  MaxNumber  #Separate #Propagate    #EnfoLP    #EnfoRelax  #EnfoPS    #Check   #ResProp    Cutoffs    DomReds       Cuts    Applied      Conss   Children
  integral         :          0          0          0          0          0          0          0          9          0          0          0          0          0          0          0
  linear           :         50         50        137         65          0          0          0          9          0          0          0          0          0          0          0
  nonlinear        :        374        374        137         65        116          0          0          1          0          6          0       4268       1961          0          2
  fixedvar         :          0          0          0          0          0          0          0          0          0          0          0          0          0          0          0
  countsols        :          0          0          0          0          0          0          0          0          0          0          0          0          0          0          0
  components       :          0          0          0          0          0          0          0          0          0          0          0          0          0          0          0
Constraint Timings :  TotalTime  SetupTime   Separate  Propagate     EnfoLP     EnfoPS     EnfoRelax   Check    ResProp    SB-Prop
  integral         :       0.00       0.00       0.00       0.00       0.00       0.00       0.00       0.00       0.00       0.00
  linear           :       0.00       0.00       0.00       0.00       0.00       0.00       0.00       0.00       0.00       0.00
  nonlinear        :       0.91       0.01       0.54       0.01       0.35       0.00       0.00       0.00       0.00       0.00
  fixedvar         :       0.00       0.00       0.00       0.00       0.00       0.00       0.00       0.00       0.00       0.00
  countsols        :       0.00       0.00       0.00       0.00       0.00       0.00       0.00       0.00       0.00       0.00
  components       :       0.00       0.00       0.00       0.00       0.00       0.00       0.00       0.00       0.00       0.00
Propagators        : #Propagate   #ResProp    Cutoffs    DomReds
  dualfix          :          2          0          0          0
  genvbounds       :        477          0          0          0
  nlobbt           :          0          0          0          0
  obbt             :        234          0          0          1
  probing          :          0          0          0          0
  pseudoobj        :          0          0          0          0
  redcost          :          0          0          0          0
  rootredcost      :          0          0          0          0
  symmetry         :          0          0          0          0
  vbounds          :          0          0          0          0
Propagator Timings :  TotalTime  SetupTime   Presolve  Propagate    ResProp    SB-Prop
  dualfix          :       0.00       0.00       0.00       0.00       0.00       0.00
  genvbounds       :       0.01       0.00       0.00       0.01       0.00       0.00
  nlobbt           :       0.00       0.00       0.00       0.00       0.00       0.00
  obbt             :      34.62       0.00       0.00      34.62       0.00       0.00
  probing          :       0.00       0.00       0.00       0.00       0.00       0.00
  pseudoobj        :       0.00       0.00       0.00       0.00       0.00       0.00
  redcost          :       0.00       0.00       0.00       0.00       0.00       0.00
  rootredcost      :       0.00       0.00       0.00       0.00       0.00       0.00
  symmetry         :       0.00       0.00       0.00       0.00       0.00       0.00
  vbounds          :       0.00       0.00       0.00       0.00       0.00       0.00
Conflict Analysis  :       Time      Calls    Success    DomReds  Conflicts   Literals    Reconvs ReconvLits   Dualrays   Nonzeros   LP Iters   (pool size: [--,--])
  propagation      :       0.00          0          0          -          0        0.0          0        0.0          -          -          -
  infeasible LP    :       0.00          0          0          -          0        0.0          0        0.0          0        0.0          0
  bound exceed. LP :       0.00          0          0          -          0        0.0          0        0.0          0        0.0          0
  strong branching :       0.00          0          0          -          0        0.0          0        0.0          -          -          0
  pseudo solution  :       0.00          0          0          -          0        0.0          0        0.0          -          -          -
  applied globally :       0.00          -          -          0          0        0.0          -          -          0          -          -
  applied locally  :          -          -          -          0          0        0.0          -          -          0          -          -
Gen. Resolution CA :       Time      Calls    Success  Conflicts  LargeCoef  LongConfs    Length
  propagation      :       0.00          0          0          0          0          0       0.0
Separators         :   ExecTime  SetupTime      Calls  RootCalls    Cutoffs    DomReds  FoundCuts ViaPoolAdd  DirectAdd    Applied ViaPoolApp  DirectApp      Conss
  cut pool         :       0.00          -          0          0          -          -          0          0          -          -          -          -          -    (maximal pool size:          0)
  aggregation      :       0.00       0.00          0          0          0          0          0          0          0          0          0          0          0
  > cmir           :          -          -          -          -          -          -          -          0          0          0          0          0          -
  > flowcover      :          -          -          -          -          -          -          -          0          0          0          0          0          -
  > knapsackcover  :          -          -          -          -          -          -          -          0          0          0          0          0          -
  cgmip            :       0.00       0.00          0          0          0          0          0          0          0          0          0          0          0
  clique           :       0.00       0.00          0          0          0          0          0          0          0          0          0          0          0
  closecuts        :       0.00       0.00          0          0          0          0          0          0          0          0          0          0          0
  convexproj       :       0.00       0.00          0          0          0          0          0          0          0          0          0          0          0
  disjunctive      :       0.00       0.00          0          0          0          0          0          0          0          0          0          0          0
  eccuts           :       0.00       0.00          0          0          0          0          0          0          0          0          0          0          0
  flower           :       0.00       0.00        137        137          0          0          0          0          0          0          0          0          0
  gauge            :       0.00       0.00          0          0          0          0          0          0          0          0          0          0          0
  gomory           :       0.00       0.00          0          0          0          0          0          0          0          0          0          0          0
  > gomorymi       :          -          -          -          -          -          -          -          0          0          0          0          0          -
  > strongcg       :          -          -          -          -          -          -          -          0          0          0          0          0          -
  impliedbounds    :       0.00       0.00          0          0          0          0          0          0          0          0          0          0          0
  interminor       :       0.00       0.00          0          0          0          0          0          0          0          0          0          0          0
  intobj           :       0.00       0.00          0          0          0          0          0          0          0          0          0          0          0
  lagromory        :       0.00       0.00          0          0          0          0          0          0          0          0          0          0          0
  mcf              :       0.00       0.00          0          0          0          0          0          0          0          0          0          0          0
  minor            :       0.35       0.00        137        137          0          0      30999          0      30999       8113          0       8113          0
  mixing           :       0.00       0.00        137        137          0          0          0          0          0          0          0          0          0
  oddcycle         :       0.00       0.00          0          0          0          0          0          0          0          0          0          0          0
  rapidlearning    :       0.00       0.00          0          0          0          0          0          0          0          0          0          0          0
  rlt              :       0.00       0.00         10         10          0          0          0          0          0          0          0          0          0
  zerohalf         :       0.00       0.00          0          0          0          0          0          0          0          0          0          0          0
Cutselectors       :   ExecTime  SetupTime      Calls  RootCalls   Selected     Forced   Filtered  RootSelec   RootForc   RootFilt 
  hybrid           :       0.03       0.00        137        137       8746          0      25119       8746          0      25119
  ensemble         :       0.00       0.00          0          0          0          0          0          0          0          0
  dynamic          :       0.00       0.00          0          0          0          0          0          0          0          0
Pricers            :   ExecTime  SetupTime      Calls       Vars
  problem variables:       0.00          -          0          0
Branching Rules    :   ExecTime  SetupTime   BranchLP  BranchExt   BranchPS    Cutoffs    DomReds       Cuts      Conss   Children
  allfullstrong    :       0.00       0.00          0          0          0          0          0          0          0          0
  cloud            :       0.00       0.00          0          0          0          0          0          0          0          0
  distribution     :       0.00       0.00          0          0          0          0          0          0          0          0
  fullstrong       :       0.00       0.00          0          0          0          0          0          0          0          0
  gomory           :       0.00       0.00          0          0          0          0          0          0          0          0
  inference        :       0.00       0.00          0          0          0          0          0          0          0          0
  leastinf         :       0.00       0.00          0          0          0          0          0          0          0          0
  lookahead        :       0.00       0.00          0          0          0          0          0          0          0          0
  mostinf          :       0.00       0.00          0          0          0          0          0          0          0          0
  multaggr         :       0.00       0.00          0          0          0          0          0          0          0          0
  nodereopt        :       0.00       0.00          0          0          0          0          0          0          0          0
  pscost           :       0.00       0.00          0          0          0          0          0          0          0          0
  random           :       0.00       0.00          0          0          0          0          0          0          0          0
  relpscost        :       0.00       0.00          0          0          0          0          0          0          0          0
  vanillafullstrong:       0.00       0.00          0          0          0          0          0          0          0          0
Primal Heuristics  :   ExecTime  SetupTime      Calls      Found       Best
  LP solutions     :       0.00          -          -          0          0
  relax solutions  :       0.00          -          -          0          0
  pseudo solutions :       0.00          -          -          0          0
  strong branching :       0.00          -          -          0          0
  actconsdiving    :       0.00       0.00          0          0          0
...